12
	Energy:     -13.9602427
O         -3.57033        1.16445        0.43709
H         -3.15789        1.88960       -0.07314
H         -3.27147        0.36792       -0.04222
O         -1.65858        3.12068       -0.25855
H         -0.85036        2.73433       -0.63152
H         -1.51867        3.02041        0.70049
O         -1.81037       -1.32015       -0.44604
H         -1.11125       -0.74041       -0.07626
H         -1.30095       -2.01360       -0.88971
O          0.34666        0.61488        0.34808
H          1.23729        0.74603       -0.01470
H          0.50499        0.62130        1.31144
